Version 4.1
SHEET 1 6476 680
WIRE 5648 -1744 5616 -1744
WIRE 5872 -1744 5728 -1744
WIRE 6080 -1728 6048 -1728
WIRE 6304 -1728 6160 -1728
WIRE 4928 -1712 4800 -1712
WIRE 5120 -1712 4992 -1712
WIRE 4400 -1696 4272 -1696
WIRE 4592 -1696 4464 -1696
WIRE 3872 -1680 3744 -1680
WIRE 4064 -1680 3936 -1680
WIRE 3344 -1664 3216 -1664
WIRE 3536 -1664 3408 -1664
WIRE 4912 -1600 4896 -1600
WIRE 4960 -1600 4912 -1600
WIRE 5120 -1600 5120 -1712
WIRE 5504 -1600 5120 -1600
WIRE 5616 -1600 5616 -1744
WIRE 5616 -1600 5584 -1600
WIRE 5712 -1600 5616 -1600
WIRE 4384 -1584 4368 -1584
WIRE 4432 -1584 4384 -1584
WIRE 4592 -1584 4592 -1696
WIRE 4688 -1584 4592 -1584
WIRE 4800 -1584 4800 -1712
WIRE 4800 -1584 4768 -1584
WIRE 4816 -1584 4800 -1584
WIRE 4896 -1584 4896 -1600
WIRE 5120 -1584 5120 -1600
WIRE 5120 -1584 5024 -1584
WIRE 5872 -1584 5872 -1744
WIRE 5872 -1584 5776 -1584
WIRE 5936 -1584 5872 -1584
WIRE 6048 -1584 6048 -1728
WIRE 6048 -1584 6016 -1584
WIRE 6144 -1584 6048 -1584
WIRE 3856 -1568 3840 -1568
WIRE 3904 -1568 3856 -1568
WIRE 4064 -1568 4064 -1680
WIRE 4160 -1568 4064 -1568
WIRE 4272 -1568 4272 -1696
WIRE 4272 -1568 4240 -1568
WIRE 4288 -1568 4272 -1568
WIRE 4368 -1568 4368 -1584
WIRE 4592 -1568 4592 -1584
WIRE 4592 -1568 4496 -1568
WIRE 4960 -1568 4944 -1568
WIRE 5712 -1568 5680 -1568
WIRE 6304 -1568 6304 -1728
WIRE 6304 -1568 6208 -1568
WIRE 6368 -1568 6304 -1568
WIRE 2432 -1552 2368 -1552
WIRE 2656 -1552 2656 -1616
WIRE 2656 -1552 2560 -1552
WIRE 2704 -1552 2656 -1552
WIRE 2816 -1552 2784 -1552
WIRE 2912 -1552 2816 -1552
WIRE 3328 -1552 3312 -1552
WIRE 3376 -1552 3328 -1552
WIRE 3536 -1552 3536 -1664
WIRE 3632 -1552 3536 -1552
WIRE 3744 -1552 3744 -1680
WIRE 3744 -1552 3712 -1552
WIRE 3760 -1552 3744 -1552
WIRE 3840 -1552 3840 -1568
WIRE 4064 -1552 4064 -1568
WIRE 4064 -1552 3968 -1552
WIRE 4432 -1552 4416 -1552
WIRE 4912 -1552 4912 -1600
WIRE 6144 -1552 6112 -1552
WIRE 3024 -1536 2976 -1536
WIRE 3104 -1536 3024 -1536
WIRE 3216 -1536 3216 -1664
WIRE 3216 -1536 3184 -1536
WIRE 3232 -1536 3216 -1536
WIRE 3312 -1536 3312 -1552
WIRE 3536 -1536 3536 -1552
WIRE 3536 -1536 3440 -1536
WIRE 3904 -1536 3888 -1536
WIRE 4384 -1536 4384 -1584
WIRE 4944 -1536 4944 -1568
WIRE 5120 -1536 5120 -1584
WIRE 5120 -1536 4944 -1536
WIRE 2816 -1520 2816 -1552
WIRE 2912 -1520 2880 -1520
WIRE 3376 -1520 3360 -1520
WIRE 3856 -1520 3856 -1568
WIRE 4416 -1520 4416 -1552
WIRE 4592 -1520 4592 -1568
WIRE 4592 -1520 4416 -1520
WIRE 3328 -1504 3328 -1552
WIRE 3888 -1504 3888 -1536
WIRE 4064 -1504 4064 -1552
WIRE 4064 -1504 3888 -1504
WIRE 3360 -1488 3360 -1520
WIRE 3536 -1488 3536 -1536
WIRE 3536 -1488 3360 -1488
WIRE 5680 -1456 5680 -1568
WIRE 6112 -1440 6112 -1552
WIRE 2880 -1408 2880 -1520
WIRE 3024 -1408 3024 -1536
WIRE 3024 -1408 2880 -1408
WIRE 2496 -1344 2496 -1488
WIRE -896 -640 -896 -672
WIRE 3552 -640 3488 -640
WIRE 4560 -640 4496 -640
WIRE 4656 -640 4560 -640
WIRE 4784 -640 4656 -640
WIRE 3024 -624 2960 -624
WIRE 3200 -624 3088 -624
WIRE 3280 -624 3200 -624
WIRE 3488 -624 3488 -640
WIRE 3488 -624 3376 -624
WIRE 3696 -624 3616 -624
WIRE 3840 -624 3696 -624
WIRE 4192 -624 4048 -624
WIRE 4432 -624 4432 -640
WIRE 4432 -624 4272 -624
WIRE -448 -608 -448 -656
WIRE 1824 -608 1792 -608
WIRE 2032 -608 1984 -608
WIRE 2448 -608 2384 -608
WIRE 2592 -608 2528 -608
WIRE 2688 -608 2656 -608
WIRE 2784 -608 2688 -608
WIRE 2880 -608 2784 -608
WIRE 2960 -608 2960 -624
WIRE 3552 -608 3488 -608
WIRE 1792 -592 1792 -608
WIRE 1792 -592 1344 -592
WIRE 4784 -592 4784 -640
WIRE -896 -528 -896 -560
WIRE 2688 -528 2688 -608
WIRE 2784 -528 2784 -608
WIRE 3200 -528 3200 -624
WIRE -448 -480 -448 -528
WIRE 3488 -480 3488 -608
WIRE 3488 -480 3456 -480
WIRE 3504 -480 3488 -480
WIRE 3696 -480 3696 -624
WIRE 3696 -480 3584 -480
WIRE -448 -464 -448 -480
WIRE 3456 -400 3456 -480
WIRE 1392 -384 1296 -384
WIRE 1392 -368 1392 -384
WIRE 1456 -368 1392 -368
WIRE 1856 -368 1856 -544
WIRE 1856 -368 1584 -368
WIRE -784 48 -784 16
WIRE 80 48 16 48
WIRE 1232 48 1168 48
WIRE 1328 48 1232 48
WIRE 1456 48 1328 48
WIRE 16 64 16 48
WIRE 16 64 -96 64
WIRE 224 64 144 64
WIRE 368 64 224 64
WIRE 656 64 576 64
WIRE 1104 64 1104 48
WIRE 1104 64 944 64
WIRE 80 80 16 80
WIRE 1456 96 1456 48
WIRE -784 144 -784 128
WIRE -784 144 -864 144
WIRE -784 160 -784 144
WIRE -560 192 -560 144
WIRE 16 208 16 80
WIRE 16 208 -16 208
WIRE 32 208 16 208
WIRE 224 208 224 64
WIRE 224 208 112 208
WIRE -784 288 -784 240
WIRE -16 288 -16 208
WIRE -560 304 -560 272
FLAG -560 304 0
FLAG -560 144 in
IOPIN -560 144 Out
FLAG -96 64 in
IOPIN -96 64 In
FLAG -16 368 0
FLAG 656 64 cl
IOPIN 656 64 Out
FLAG 112 96 +15V
IOPIN 112 96 In
FLAG 112 32 -15V
IOPIN 112 32 In
FLAG -864 144 0
FLAG -784 16 +15V
IOPIN -784 16 Out
FLAG -784 288 -15V
IOPIN -784 288 Out
FLAG 1456 176 0
FLAG 864 64 cl
IOPIN 864 64 In
FLAG 1456 48 38k
IOPIN 1456 48 Out
FLAG 1328 112 0
FLAG 1232 128 0
FLAG -896 -448 0
FLAG -448 -400 0
FLAG -448 -736 L
IOPIN -448 -736 Out
FLAG -896 -752 R
IOPIN -896 -752 Out
FLAG 1344 -592 L
IOPIN 1344 -592 In
FLAG 1296 -384 R
IOPIN 1296 -384 In
FLAG 1520 -304 38k
IOPIN 1520 -304 In
FLAG 1936 -544 in
IOPIN 1936 -544 In
FLAG 2032 -608 y
IOPIN 2032 -608 Out
FLAG 2384 -608 y
IOPIN 2384 -608 In
FLAG 2688 -464 0
FLAG 2784 -448 0
FLAG 3200 -448 0
FLAG 3280 -624 c
IOPIN 3280 -624 Out
FLAG 3376 -624 c
IOPIN 3376 -624 In
FLAG 4784 -512 0
FLAG 4784 -640 38k2
IOPIN 4784 -640 Out
FLAG 4656 -576 0
FLAG 4560 -560 0
FLAG 3456 -320 0
FLAG 3584 -592 +15V
IOPIN 3584 -592 In
FLAG 3584 -656 -15V
IOPIN 3584 -656 In
FLAG 2368 -1552 y
IOPIN 2368 -1552 In
FLAG 2496 -1344 38k2
IOPIN 2496 -1344 In
FLAG 2656 -1616 e
IOPIN 2656 -1616 Out
FLAG 2944 -1504 +15V
IOPIN 2944 -1504 In
FLAG 2944 -1568 -15V
IOPIN 2944 -1568 In
FLAG 3408 -1504 +15V
IOPIN 3408 -1504 In
FLAG 3408 -1568 -15V
IOPIN 3408 -1568 In
FLAG 2816 -1456 0
FLAG 3936 -1520 +15V
IOPIN 3936 -1520 In
FLAG 3936 -1584 -15V
IOPIN 3936 -1584 In
FLAG 4464 -1536 +15V
IOPIN 4464 -1536 In
FLAG 4464 -1600 -15V
IOPIN 4464 -1600 In
FLAG 4992 -1552 +15V
IOPIN 4992 -1552 In
FLAG 4992 -1616 -15V
IOPIN 4992 -1616 In
FLAG 3328 -1440 0
FLAG 3856 -1456 0
FLAG 4384 -1472 0
FLAG 4912 -1488 0
FLAG 6368 -1568 r1
IOPIN 6368 -1568 Out
FLAG 5744 -1616 +15V
IOPIN 5744 -1616 In
FLAG 5744 -1552 -15V
IOPIN 5744 -1552 In
FLAG 5680 -1456 0
FLAG 6176 -1600 +15V
IOPIN 6176 -1600 In
FLAG 6176 -1536 -15V
IOPIN 6176 -1536 In
FLAG 6112 -1440 0
SYMBOL voltage -560 176 R0
WINDOW 123 24 124 Left 2
WINDOW 39 0 0 Left 0
SYMATTR InstName V1
SYMATTR Value SINE(0 0.1 19k 0 0 90)
SYMBOL OpAmps\\AD8039 112 128 M180
SYMATTR InstName U1
SYMBOL res -32 272 R0
SYMATTR InstName R1
SYMATTR Value 10k
SYMBOL res 128 192 R90
WINDOW 0 0 56 VBottom 2
WINDOW 3 32 56 VTop 2
SYMATTR InstName R2
SYMATTR Value 476.6k
SYMBOL EE2005LIB\\EE2005LIB\\sym\\ABS 464 64 R0
SYMATTR InstName U2
SYMBOL voltage -784 32 R0
WINDOW 123 0 0 Left 0
WINDOW 39 0 0 Left 0
SYMATTR InstName V2
SYMATTR Value 15
SYMBOL voltage -784 144 R0
WINDOW 123 0 0 Left 0
WINDOW 39 0 0 Left 0
SYMATTR InstName V3
SYMATTR Value 15
SYMBOL ind 848 80 R270
WINDOW 0 32 56 VTop 2
WINDOW 3 5 56 VBottom 2
SYMATTR InstName L1
SYMATTR Value 246.74ľ
SYMBOL res 1440 80 R0
SYMATTR InstName R3
SYMATTR Value 10
SYMBOL cap 1168 32 R90
WINDOW 0 0 32 VBottom 2
WINDOW 3 32 32 VTop 2
SYMATTR InstName C6
SYMATTR Value 71.79n
SYMBOL ind 1216 32 R0
SYMATTR InstName L6
SYMATTR Value 14.37ľ
SYMBOL cap 1312 48 R0
SYMATTR InstName C7
SYMATTR Value 1.21ľ
SYMBOL voltage -448 -752 R0
WINDOW 123 0 0 Left 0
WINDOW 39 24 44 Left 2
SYMATTR SpiceLine Rser=1p
SYMATTR InstName V4
SYMATTR Value SINE(0 0.24 200 0 0 90)
SYMBOL voltage -448 -624 R0
WINDOW 123 0 0 Left 0
WINDOW 39 0 0 Left 0
SYMATTR InstName V5
SYMATTR Value SINE(0 0.23 2000 0 0 90)
SYMBOL voltage -448 -496 R0
WINDOW 123 0 0 Left 0
WINDOW 39 0 0 Left 0
SYMATTR InstName V6
SYMATTR Value SINE(0 0.23 15000 0 0 90)
SYMBOL voltage -896 -768 R0
WINDOW 123 0 0 Left 0
WINDOW 39 24 44 Left 2
SYMATTR SpiceLine Rser=1p
SYMATTR InstName V7
SYMATTR Value SINE(0 0.23 400 0 0 90)
SYMBOL voltage -896 -656 R0
WINDOW 123 0 0 Left 0
WINDOW 39 0 0 Left 0
SYMATTR InstName V8
SYMATTR Value SINE(0 0.23 4000 0 0 90)
SYMBOL voltage -896 -544 R0
WINDOW 123 0 0 Left 0
WINDOW 39 0 0 Left 0
SYMATTR InstName V9
SYMATTR Value SINE(0 0.24 15000 0 0 90)
SYMBOL EE2005LIB\\EE2005LIB\\sym\\MULT 1520 -368 R0
SYMATTR InstName U3
SYMBOL EE2005LIB\\EE2005LIB\\sym\\SUM3 1904 -608 R0
SYMATTR InstName U4
SYMBOL ind 2432 -592 R270
WINDOW 0 32 56 VTop 2
WINDOW 3 5 56 VBottom 2
SYMATTR InstName L3
SYMATTR Value 9.38m
SYMBOL ind 2768 -544 R0
SYMATTR InstName L4
SYMATTR Value 9.17ľ
SYMBOL cap 2672 -528 R0
SYMATTR InstName C2
SYMATTR Value 7.65ľ
SYMBOL cap 2656 -624 R90
WINDOW 0 0 32 VBottom 2
WINDOW 3 32 32 VTop 2
SYMATTR InstName C3
SYMATTR Value 7.49n
SYMBOL ind 2864 -592 R270
WINDOW 0 32 56 VTop 2
WINDOW 3 5 56 VBottom 2
SYMATTR InstName L5
SYMATTR Value 3.13m
SYMBOL cap 3088 -640 R90
WINDOW 0 0 32 VBottom 2
WINDOW 3 32 32 VTop 2
SYMATTR InstName C4
SYMATTR Value 22.46n
SYMBOL res 3184 -544 R0
SYMATTR InstName R5
SYMATTR Value 33
SYMBOL ind 4176 -608 R270
WINDOW 0 32 56 VTop 2
WINDOW 3 5 56 VBottom 2
SYMATTR InstName L7
SYMATTR Value 246.74ľ
SYMBOL res 4768 -608 R0
SYMATTR InstName R6
SYMATTR Value 10
SYMBOL cap 4496 -656 R90
WINDOW 0 0 32 VBottom 2
WINDOW 3 32 32 VTop 2
SYMATTR InstName C5
SYMATTR Value 71.79n
SYMBOL ind 4544 -656 R0
SYMATTR InstName L8
SYMATTR Value 14.37ľ
SYMBOL cap 4640 -640 R0
SYMATTR InstName C8
SYMATTR Value 1.21ľ
SYMBOL OpAmps\\AD8039 3584 -560 M180
SYMATTR InstName U5
SYMBOL res 3440 -416 R0
SYMATTR InstName R7
SYMATTR Value 10k
SYMBOL res 3600 -496 R90
WINDOW 0 0 56 VBottom 2
WINDOW 3 32 56 VTop 2
SYMATTR InstName R8
SYMATTR Value 476.6k
SYMBOL EE2005LIB\\EE2005LIB\\sym\\ABS 3936 -624 R0
SYMATTR InstName U6
SYMBOL EE2005LIB\\EE2005LIB\\sym\\MULT 2496 -1552 R0
SYMATTR InstName U7
SYMBOL OpAmps\\AD8039 2944 -1472 M180
SYMATTR InstName U8
SYMBOL OpAmps\\AD8039 3408 -1472 M180
SYMATTR InstName U9
SYMBOL res 2800 -1568 R90
WINDOW 0 0 56 VBottom 2
WINDOW 3 32 56 VTop 2
SYMATTR InstName R9
SYMATTR Value 10k
SYMBOL cap 2800 -1520 R0
SYMATTR InstName C9
SYMATTR Value 990.1p
SYMBOL res 3200 -1552 R90
WINDOW 0 0 56 VBottom 2
WINDOW 3 32 56 VTop 2
SYMATTR InstName R10
SYMATTR Value 10k
SYMBOL res 3328 -1552 R90
WINDOW 0 0 56 VBottom 2
WINDOW 3 32 56 VTop 2
SYMATTR InstName R11
SYMATTR Value 10k
SYMBOL cap 3312 -1504 R0
SYMATTR InstName C10
SYMATTR Value 930.39p
SYMBOL cap 3408 -1680 R90
WINDOW 0 0 32 VBottom 2
WINDOW 3 32 32 VTop 2
SYMATTR InstName C14
SYMATTR Value 1.05n
SYMBOL OpAmps\\AD8039 3936 -1488 M180
SYMATTR InstName U10
SYMBOL res 3728 -1568 R90
WINDOW 0 0 56 VBottom 2
WINDOW 3 32 56 VTop 2
SYMATTR InstName R12
SYMATTR Value 10k
SYMBOL res 3856 -1568 R90
WINDOW 0 0 56 VBottom 2
WINDOW 3 32 56 VTop 2
SYMATTR InstName R13
SYMATTR Value 10k
SYMBOL cap 3840 -1520 R0
SYMATTR InstName C11
SYMATTR Value 758.46p
SYMBOL cap 3936 -1696 R90
WINDOW 0 0 32 VBottom 2
WINDOW 3 32 32 VTop 2
SYMATTR InstName C12
SYMATTR Value 1.29n
SYMBOL OpAmps\\AD8039 4464 -1504 M180
SYMATTR InstName U11
SYMBOL res 4256 -1584 R90
WINDOW 0 0 56 VBottom 2
WINDOW 3 32 56 VTop 2
SYMATTR InstName R14
SYMATTR Value 10k
SYMBOL res 4384 -1584 R90
WINDOW 0 0 56 VBottom 2
WINDOW 3 32 56 VTop 2
SYMATTR InstName R15
SYMATTR Value 10k
SYMBOL cap 4368 -1536 R0
SYMATTR InstName C13
SYMATTR Value 495.05p
SYMBOL cap 4464 -1712 R90
WINDOW 0 0 32 VBottom 2
WINDOW 3 32 32 VTop 2
SYMATTR InstName C15
SYMATTR Value 1.98n
SYMBOL OpAmps\\AD8039 4992 -1520 M180
SYMATTR InstName U12
SYMBOL res 4784 -1600 R90
WINDOW 0 0 56 VBottom 2
WINDOW 3 32 56 VTop 2
SYMATTR InstName R16
SYMATTR Value 10k
SYMBOL res 4912 -1600 R90
WINDOW 0 0 56 VBottom 2
WINDOW 3 32 56 VTop 2
SYMATTR InstName R17
SYMATTR Value 10k
SYMBOL cap 4896 -1552 R0
SYMATTR InstName C16
SYMATTR Value 171.93p
SYMBOL cap 4992 -1728 R90
WINDOW 0 0 32 VBottom 2
WINDOW 3 32 32 VTop 2
SYMATTR InstName C17
SYMATTR Value 5.7n
SYMBOL OpAmps\\AD8039 5744 -1648 R0
SYMATTR InstName U13
SYMBOL res 5600 -1616 R90
WINDOW 0 0 56 VBottom 2
WINDOW 3 32 56 VTop 2
SYMATTR InstName R18
SYMATTR Value 10k
SYMBOL res 5744 -1760 R90
WINDOW 0 0 56 VBottom 2
WINDOW 3 32 56 VTop 2
SYMATTR InstName R19
SYMATTR Value 10k
SYMBOL OpAmps\\AD8039 6176 -1632 R0
SYMATTR InstName U14
SYMBOL res 6032 -1600 R90
WINDOW 0 0 56 VBottom 2
WINDOW 3 32 56 VTop 2
SYMATTR InstName R20
SYMATTR Value 20k
SYMBOL res 6176 -1744 R90
WINDOW 0 0 56 VBottom 2
WINDOW 3 32 56 VTop 2
SYMATTR InstName R21
SYMATTR Value 10k
TEXT -400 -256 Left 2 !.tran 0 0.01 0 0.00000001
TEXT -400 -224 Left 2 !.four 1 8 V(cl)
